Ketcher 11182013472D 1   1.00000     0.00000     0

  4  3  0     0  0            999 V2000
   -1.2991    0.2500    0.0000 I   0  0  0  0  0  0  0  0  0  0  0  0
   -0.4330   -0.2500    0.0000 C   0  0  0  0  0  0  0  0  0  0  0  0
    0.4330    0.2500    0.0000 C   0  0  0  0  0  0  0  0  0  0  0  0
    1.2991   -0.2500    0.0000 Cl  0  0  0  0  0  0  0  0  0  0  0  0
  1  2  1  0     0  0
  2  3  1  0     0  0
  3  4  1  0     0  0
M  END

>  <IS_TOP_SECRET>
false

>  <DRY_SOLVENT>
false

>  <DECOUPLED>
false

>  <MOLECULAR_MASS_(DECOUPLED)>

>  <SUM_FORMULA_(DECOUPLED)>

>  <STEREO_ABS>

>  <STEREO_REL>

>  <CAS>
624-70-4

>  <SAMPLE_NAME>
CU1-R1-A

>  <MOLECULE_NAME>
1-chloro-2-iodoethane

>  <EXTERNAL_LABEL>
CU1-Nicky

>  <REAL_AMOUNT>

>  <REAL_UNIT>
g

>  <TARGET_AMOUNT>
0.0

>  <TARGET_UNIT>
g

>  <MOLARITY>
0.0 M

>  <DENSITY>
0.0 g/mL

>  <PURITY>
1.0

>  <SOLVENT>
Benzene

>  <LOCATION>
room 23

>  <MELTING_PT>
300.0 - 400.0

>  <BOILING_PT>
100.0 - 200.0

>  <REFRACTIVE_INDEX>
0.76

>  <FLASH_POINT>
23 °C

>  <CANONICAL_SMILES>

>  <STATUS>
To be ordered

>  <VENDOR>
Merck

>  <ORDER_NUMBER>
O6582233N2

>  <VOLUME>
1 ml

>  <AMOUNT>
1 mg

>  <PRICE>
150

>  <PERSON>
ML

>  <REQUIRED_DATE>
2024-01-01

>  <EXPIRATION_DATE>
2050-01-01

>  <ORDERED_DATE>
2025-01-01

>  <REQUIRED_BY>
Simone

>  <SAFETY_SHEET_LINK_MERCK>
https://www.sigmaaldrich.com/DE/en/sds/sial/phr1009

>  <SAFETY_SHEET_LINK_THERMOFISCHER>

>  <PRODUCT_LINK_MERCK>
https://www.sigmaaldrich.com/US/en/product/sial/phr1009

>  <PRODUCT_LINK_THERMOFISCHER>

>  <PICTOGRAMS>
GHS07

>  <H_STATEMENTS>
H302

>  <P_STATEMENTS>
P264-P270-P301-P312-P501

>  <HOST_BUILDING>
1

>  <HOST_ROOM>
2

>  <HOST_CABINET>
cabinet 3

>  <HOST_GROUP>
Schumacher

>  <OWNER>
Olivier

>  <CURRENT_BUILDING>

>  <CURRENT_ROOM>

>  <CURRENT_CABINET>

>  <CURRENT_GROUP>

>  <BORROWED_BY>

>  <DISPOSAL_INFO>

>  <IMPORTANT_NOTES>

>  <STORAGE_TEMPERATURE>
25 °C

$$$$
